<additional xmlns:xsi="http://www.w3.org/2001/XMLSchema-instance" xsi:noNamespaceSchemaLocation="http://sumo.dlr.de/xsd/additional_file.xsd">
    <vTypeDistribution id="cav">
        <vType accel="1.500" carFollowModel="IDM" color="white" decel="6.000" id="cav0" length="5.053" maxSpeed="30.000" minGap="1.501" sigma="0.500" speedFactor="1.200" tau="0.500" vClass="taxi"/>
        <vType accel="1.500" carFollowModel="IDM" color="white" decel="6.000" id="cav1" length="4.925" maxSpeed="30.000" minGap="1.501" sigma="0.500" speedFactor="1.200" tau="0.500" vClass="taxi"/>
        <vType accel="1.500" carFollowModel="IDM" color="white" decel="6.000" id="cav2" length="4.781" maxSpeed="30.000" minGap="1.501" sigma="0.500" speedFactor="1.200" tau="0.500" vClass="taxi"/>
        <vType accel="1.500" carFollowModel="IDM" color="white" decel="6.000" id="cav3" length="4.878" maxSpeed="30.000" minGap="1.501" sigma="0.500" speedFactor="1.200" tau="0.500" vClass="taxi"/>
        <vType accel="1.500" carFollowModel="IDM" color="white" decel="6.000" id="cav4" length="4.412" maxSpeed="30.000" minGap="1.501" sigma="0.500" speedFactor="1.200" tau="0.500" vClass="taxi"/>
        <vType accel="1.500" carFollowModel="IDM" color="white" decel="6.000" id="cav5" length="4.799" maxSpeed="30.000" minGap="1.501" sigma="0.500" speedFactor="1.200" tau="0.500" vClass="taxi"/>
        <vType accel="1.500" carFollowModel="IDM" color="white" decel="6.000" id="cav6" length="4.951" maxSpeed="30.000" minGap="1.501" sigma="0.500" speedFactor="1.200" tau="0.500" vClass="taxi"/>
        <vType accel="1.500" carFollowModel="IDM" color="white" decel="6.000" id="cav7" length="4.893" maxSpeed="30.000" minGap="1.501" sigma="0.500" speedFactor="1.200" tau="0.500" vClass="taxi"/>
        <vType accel="1.500" carFollowModel="IDM" color="white" decel="6.000" id="cav8" length="4.699" maxSpeed="30.000" minGap="1.501" sigma="0.500" speedFactor="1.200" tau="0.500" vClass="taxi"/>
        <vType accel="1.500" carFollowModel="IDM" color="white" decel="6.000" id="cav9" length="4.602" maxSpeed="30.000" minGap="1.501" sigma="0.500" speedFactor="1.200" tau="0.500" vClass="taxi"/>
        <vType accel="1.500" carFollowModel="IDM" color="white" decel="6.000" id="cav10" length="4.848" maxSpeed="30.000" minGap="1.501" sigma="0.500" speedFactor="1.200" tau="0.500" vClass="taxi"/>
        <vType accel="1.500" carFollowModel="IDM" color="white" decel="6.000" id="cav11" length="5.010" maxSpeed="30.000" minGap="1.501" sigma="0.500" speedFactor="1.200" tau="0.500" vClass="taxi"/>
        <vType accel="1.500" carFollowModel="IDM" color="white" decel="6.000" id="cav12" length="4.928" maxSpeed="30.000" minGap="1.501" sigma="0.500" speedFactor="1.200" tau="0.500" vClass="taxi"/>
        <vType accel="1.500" carFollowModel="IDM" color="white" decel="6.000" id="cav13" length="5.114" maxSpeed="30.000" minGap="1.501" sigma="0.500" speedFactor="1.200" tau="0.500" vClass="taxi"/>
        <vType accel="1.500" carFollowModel="IDM" color="white" decel="6.000" id="cav14" length="5.002" maxSpeed="30.000" minGap="1.501" sigma="0.500" speedFactor="1.200" tau="0.500" vClass="taxi"/>
        <vType accel="1.500" carFollowModel="IDM" color="white" decel="6.000" id="cav15" length="4.623" maxSpeed="30.000" minGap="1.501" sigma="0.500" speedFactor="1.200" tau="0.500" vClass="taxi"/>
        <vType accel="1.500" carFollowModel="IDM" color="white" decel="6.000" id="cav16" length="5.160" maxSpeed="30.000" minGap="1.501" sigma="0.500" speedFactor="1.200" tau="0.500" vClass="taxi"/>
        <vType accel="1.500" carFollowModel="IDM" color="white" decel="6.000" id="cav17" length="4.917" maxSpeed="30.000" minGap="1.501" sigma="0.500" speedFactor="1.200" tau="0.500" vClass="taxi"/>
        <vType accel="1.500" carFollowModel="IDM" color="white" decel="6.000" id="cav18" length="5.019" maxSpeed="30.000" minGap="1.501" sigma="0.500" speedFactor="1.200" tau="0.500" vClass="taxi"/>
        <vType accel="1.500" carFollowModel="IDM" color="white" decel="6.000" id="cav19" length="5.035" maxSpeed="30.000" minGap="1.501" sigma="0.500" speedFactor="1.200" tau="0.500" vClass="taxi"/>
        <vType accel="1.500" carFollowModel="IDM" color="white" decel="6.000" id="cav20" length="4.967" maxSpeed="30.000" minGap="1.501" sigma="0.500" speedFactor="1.200" tau="0.500" vClass="taxi"/>
        <vType accel="1.500" carFollowModel="IDM" color="white" decel="6.000" id="cav21" length="4.893" maxSpeed="30.000" minGap="1.501" sigma="0.500" speedFactor="1.200" tau="0.500" vClass="taxi"/>
        <vType accel="1.500" carFollowModel="IDM" color="white" decel="6.000" id="cav22" length="4.809" maxSpeed="30.000" minGap="1.501" sigma="0.500" speedFactor="1.200" tau="0.500" vClass="taxi"/>
        <vType accel="1.500" carFollowModel="IDM" color="white" decel="6.000" id="cav23" length="4.812" maxSpeed="30.000" minGap="1.501" sigma="0.500" speedFactor="1.200" tau="0.500" vClass="taxi"/>
        <vType accel="1.500" carFollowModel="IDM" color="white" decel="6.000" id="cav24" length="4.968" maxSpeed="30.000" minGap="1.501" sigma="0.500" speedFactor="1.200" tau="0.500" vClass="taxi"/>
        <vType accel="1.500" carFollowModel="IDM" color="white" decel="6.000" id="cav25" length="4.675" maxSpeed="30.000" minGap="1.501" sigma="0.500" speedFactor="1.200" tau="0.500" vClass="taxi"/>
        <vType accel="1.500" carFollowModel="IDM" color="white" decel="6.000" id="cav26" length="5.058" maxSpeed="30.000" minGap="1.501" sigma="0.500" speedFactor="1.200" tau="0.500" vClass="taxi"/>
        <vType accel="1.500" carFollowModel="IDM" color="white" decel="6.000" id="cav27" length="4.742" maxSpeed="30.000" minGap="1.501" sigma="0.500" speedFactor="1.200" tau="0.500" vClass="taxi"/>
        <vType accel="1.500" carFollowModel="IDM" color="white" decel="6.000" id="cav28" length="5.202" maxSpeed="30.000" minGap="1.501" sigma="0.500" speedFactor="1.200" tau="0.500" vClass="taxi"/>
        <vType accel="1.500" carFollowModel="IDM" color="white" decel="6.000" id="cav29" length="4.751" maxSpeed="30.000" minGap="1.501" sigma="0.500" speedFactor="1.200" tau="0.500" vClass="taxi"/>
        <vType accel="1.500" carFollowModel="IDM" color="white" decel="6.000" id="cav30" length="5.427" maxSpeed="30.000" minGap="1.501" sigma="0.500" speedFactor="1.200" tau="0.500" vClass="taxi"/>
        <vType accel="1.500" carFollowModel="IDM" color="white" decel="6.000" id="cav31" length="5.033" maxSpeed="30.000" minGap="1.501" sigma="0.500" speedFactor="1.200" tau="0.500" vClass="taxi"/>
        <vType accel="1.500" carFollowModel="IDM" color="white" decel="6.000" id="cav32" length="4.812" maxSpeed="30.000" minGap="1.501" sigma="0.500" speedFactor="1.200" tau="0.500" vClass="taxi"/>
        <vType accel="1.500" carFollowModel="IDM" color="white" decel="6.000" id="cav33" length="4.800" maxSpeed="30.000" minGap="1.501" sigma="0.500" speedFactor="1.200" tau="0.500" vClass="taxi"/>
        <vType accel="1.500" carFollowModel="IDM" color="white" decel="6.000" id="cav34" length="4.700" maxSpeed="30.000" minGap="1.501" sigma="0.500" speedFactor="1.200" tau="0.500" vClass="taxi"/>
        <vType accel="1.500" carFollowModel="IDM" color="white" decel="6.000" id="cav35" length="4.847" maxSpeed="30.000" minGap="1.501" sigma="0.500" speedFactor="1.200" tau="0.500" vClass="taxi"/>
        <vType accel="1.500" carFollowModel="IDM" color="white" decel="6.000" id="cav36" length="4.979" maxSpeed="30.000" minGap="1.501" sigma="0.500" speedFactor="1.200" tau="0.500" vClass="taxi"/>
        <vType accel="1.500" carFollowModel="IDM" color="white" decel="6.000" id="cav37" length="5.365" maxSpeed="30.000" minGap="1.501" sigma="0.500" speedFactor="1.200" tau="0.500" vClass="taxi"/>
        <vType accel="1.500" carFollowModel="IDM" color="white" decel="6.000" id="cav38" length="4.549" maxSpeed="30.000" minGap="1.501" sigma="0.500" speedFactor="1.200" tau="0.500" vClass="taxi"/>
        <vType accel="1.500" carFollowModel="IDM" color="white" decel="6.000" id="cav39" length="5.010" maxSpeed="30.000" minGap="1.501" sigma="0.500" speedFactor="1.200" tau="0.500" vClass="taxi"/>
        <vType accel="1.500" carFollowModel="IDM" color="white" decel="6.000" id="cav40" length="4.891" maxSpeed="30.000" minGap="1.501" sigma="0.500" speedFactor="1.200" tau="0.500" vClass="taxi"/>
        <vType accel="1.500" carFollowModel="IDM" color="white" decel="6.000" id="cav41" length="4.971" maxSpeed="30.000" minGap="1.501" sigma="0.500" speedFactor="1.200" tau="0.500" vClass="taxi"/>
        <vType accel="1.500" carFollowModel="IDM" color="white" decel="6.000" id="cav42" length="5.162" maxSpeed="30.000" minGap="1.501" sigma="0.500" speedFactor="1.200" tau="0.500" vClass="taxi"/>
        <vType accel="1.500" carFollowModel="IDM" color="white" decel="6.000" id="cav43" length="5.156" maxSpeed="30.000" minGap="1.501" sigma="0.500" speedFactor="1.200" tau="0.500" vClass="taxi"/>
        <vType accel="1.500" carFollowModel="IDM" color="white" decel="6.000" id="cav44" length="5.013" maxSpeed="30.000" minGap="1.501" sigma="0.500" speedFactor="1.200" tau="0.500" vClass="taxi"/>
        <vType accel="1.500" carFollowModel="IDM" color="white" decel="6.000" id="cav45" length="4.891" maxSpeed="30.000" minGap="1.501" sigma="0.500" speedFactor="1.200" tau="0.500" vClass="taxi"/>
        <vType accel="1.500" carFollowModel="IDM" color="white" decel="6.000" id="cav46" length="5.057" maxSpeed="30.000" minGap="1.501" sigma="0.500" speedFactor="1.200" tau="0.500" vClass="taxi"/>
        <vType accel="1.500" carFollowModel="IDM" color="white" decel="6.000" id="cav47" length="4.512" maxSpeed="30.000" minGap="1.501" sigma="0.500" speedFactor="1.200" tau="0.500" vClass="taxi"/>
        <vType accel="1.500" carFollowModel="IDM" color="white" decel="6.000" id="cav48" length="5.038" maxSpeed="30.000" minGap="1.501" sigma="0.500" speedFactor="1.200" tau="0.500" vClass="taxi"/>
        <vType accel="1.500" carFollowModel="IDM" color="white" decel="6.000" id="cav49" length="5.479" maxSpeed="30.000" minGap="1.501" sigma="0.500" speedFactor="1.200" tau="0.500" vClass="taxi"/>
        <vType accel="1.500" carFollowModel="IDM" color="white" decel="6.000" id="cav50" length="4.831" maxSpeed="30.000" minGap="1.501" sigma="0.500" speedFactor="1.200" tau="0.500" vClass="taxi"/>
        <vType accel="1.500" carFollowModel="IDM" color="white" decel="6.000" id="cav51" length="5.011" maxSpeed="30.000" minGap="1.501" sigma="0.500" speedFactor="1.200" tau="0.500" vClass="taxi"/>
        <vType accel="1.500" carFollowModel="IDM" color="white" decel="6.000" id="cav52" length="4.455" maxSpeed="30.000" minGap="1.501" sigma="0.500" speedFactor="1.200" tau="0.500" vClass="taxi"/>
        <vType accel="1.500" carFollowModel="IDM" color="white" decel="6.000" id="cav53" length="4.649" maxSpeed="30.000" minGap="1.501" sigma="0.500" speedFactor="1.200" tau="0.500" vClass="taxi"/>
        <vType accel="1.500" carFollowModel="IDM" color="white" decel="6.000" id="cav54" length="4.843" maxSpeed="30.000" minGap="1.501" sigma="0.500" speedFactor="1.200" tau="0.500" vClass="taxi"/>
        <vType accel="1.500" carFollowModel="IDM" color="white" decel="6.000" id="cav55" length="4.624" maxSpeed="30.000" minGap="1.501" sigma="0.500" speedFactor="1.200" tau="0.500" vClass="taxi"/>
        <vType accel="1.500" carFollowModel="IDM" color="white" decel="6.000" id="cav56" length="5.101" maxSpeed="30.000" minGap="1.501" sigma="0.500" speedFactor="1.200" tau="0.500" vClass="taxi"/>
        <vType accel="1.500" carFollowModel="IDM" color="white" decel="6.000" id="cav57" length="5.059" maxSpeed="30.000" minGap="1.501" sigma="0.500" speedFactor="1.200" tau="0.500" vClass="taxi"/>
        <vType accel="1.500" carFollowModel="IDM" color="white" decel="6.000" id="cav58" length="5.181" maxSpeed="30.000" minGap="1.501" sigma="0.500" speedFactor="1.200" tau="0.500" vClass="taxi"/>
        <vType accel="1.500" carFollowModel="IDM" color="white" decel="6.000" id="cav59" length="5.038" maxSpeed="30.000" minGap="1.501" sigma="0.500" speedFactor="1.200" tau="0.500" vClass="taxi"/>
        <vType accel="1.500" carFollowModel="IDM" color="white" decel="6.000" id="cav60" length="4.587" maxSpeed="30.000" minGap="1.501" sigma="0.500" speedFactor="1.200" tau="0.500" vClass="taxi"/>
        <vType accel="1.500" carFollowModel="IDM" color="white" decel="6.000" id="cav61" length="4.798" maxSpeed="30.000" minGap="1.501" sigma="0.500" speedFactor="1.200" tau="0.500" vClass="taxi"/>
        <vType accel="1.500" carFollowModel="IDM" color="white" decel="6.000" id="cav62" length="5.278" maxSpeed="30.000" minGap="1.501" sigma="0.500" speedFactor="1.200" tau="0.500" vClass="taxi"/>
        <vType accel="1.500" carFollowModel="IDM" color="white" decel="6.000" id="cav63" length="5.361" maxSpeed="30.000" minGap="1.501" sigma="0.500" speedFactor="1.200" tau="0.500" vClass="taxi"/>
        <vType accel="1.500" carFollowModel="IDM" color="white" decel="6.000" id="cav64" length="4.748" maxSpeed="30.000" minGap="1.501" sigma="0.500" speedFactor="1.200" tau="0.500" vClass="taxi"/>
        <vType accel="1.500" carFollowModel="IDM" color="white" decel="6.000" id="cav65" length="5.140" maxSpeed="30.000" minGap="1.501" sigma="0.500" speedFactor="1.200" tau="0.500" vClass="taxi"/>
        <vType accel="1.500" carFollowModel="IDM" color="white" decel="6.000" id="cav66" length="4.840" maxSpeed="30.000" minGap="1.501" sigma="0.500" speedFactor="1.200" tau="0.500" vClass="taxi"/>
        <vType accel="1.500" carFollowModel="IDM" color="white" decel="6.000" id="cav67" length="4.529" maxSpeed="30.000" minGap="1.501" sigma="0.500" speedFactor="1.200" tau="0.500" vClass="taxi"/>
        <vType accel="1.500" carFollowModel="IDM" color="white" decel="6.000" id="cav68" length="4.868" maxSpeed="30.000" minGap="1.501" sigma="0.500" speedFactor="1.200" tau="0.500" vClass="taxi"/>
        <vType accel="1.500" carFollowModel="IDM" color="white" decel="6.000" id="cav69" length="4.665" maxSpeed="30.000" minGap="1.501" sigma="0.500" speedFactor="1.200" tau="0.500" vClass="taxi"/>
        <vType accel="1.500" carFollowModel="IDM" color="white" decel="6.000" id="cav70" length="4.814" maxSpeed="30.000" minGap="1.501" sigma="0.500" speedFactor="1.200" tau="0.500" vClass="taxi"/>
        <vType accel="1.500" carFollowModel="IDM" color="white" decel="6.000" id="cav71" length="4.933" maxSpeed="30.000" minGap="1.501" sigma="0.500" speedFactor="1.200" tau="0.500" vClass="taxi"/>
        <vType accel="1.500" carFollowModel="IDM" color="white" decel="6.000" id="cav72" length="4.810" maxSpeed="30.000" minGap="1.501" sigma="0.500" speedFactor="1.200" tau="0.500" vClass="taxi"/>
        <vType accel="1.500" carFollowModel="IDM" color="white" decel="6.000" id="cav73" length="4.433" maxSpeed="30.000" minGap="1.501" sigma="0.500" speedFactor="1.200" tau="0.500" vClass="taxi"/>
        <vType accel="1.500" carFollowModel="IDM" color="white" decel="6.000" id="cav74" length="4.894" maxSpeed="30.000" minGap="1.501" sigma="0.500" speedFactor="1.200" tau="0.500" vClass="taxi"/>
        <vType accel="1.500" carFollowModel="IDM" color="white" decel="6.000" id="cav75" length="5.203" maxSpeed="30.000" minGap="1.501" sigma="0.500" speedFactor="1.200" tau="0.500" vClass="taxi"/>
        <vType accel="1.500" carFollowModel="IDM" color="white" decel="6.000" id="cav76" length="5.052" maxSpeed="30.000" minGap="1.501" sigma="0.500" speedFactor="1.200" tau="0.500" vClass="taxi"/>
        <vType accel="1.500" carFollowModel="IDM" color="white" decel="6.000" id="cav77" length="4.461" maxSpeed="30.000" minGap="1.501" sigma="0.500" speedFactor="1.200" tau="0.500" vClass="taxi"/>
        <vType accel="1.500" carFollowModel="IDM" color="white" decel="6.000" id="cav78" length="4.926" maxSpeed="30.000" minGap="1.501" sigma="0.500" speedFactor="1.200" tau="0.500" vClass="taxi"/>
        <vType accel="1.500" carFollowModel="IDM" color="white" decel="6.000" id="cav79" length="5.154" maxSpeed="30.000" minGap="1.501" sigma="0.500" speedFactor="1.200" tau="0.500" vClass="taxi"/>
        <vType accel="1.500" carFollowModel="IDM" color="white" decel="6.000" id="cav80" length="4.927" maxSpeed="30.000" minGap="1.501" sigma="0.500" speedFactor="1.200" tau="0.500" vClass="taxi"/>
        <vType accel="1.500" carFollowModel="IDM" color="white" decel="6.000" id="cav81" length="4.719" maxSpeed="30.000" minGap="1.501" sigma="0.500" speedFactor="1.200" tau="0.500" vClass="taxi"/>
        <vType accel="1.500" carFollowModel="IDM" color="white" decel="6.000" id="cav82" length="5.121" maxSpeed="30.000" minGap="1.501" sigma="0.500" speedFactor="1.200" tau="0.500" vClass="taxi"/>
        <vType accel="1.500" carFollowModel="IDM" color="white" decel="6.000" id="cav83" length="4.929" maxSpeed="30.000" minGap="1.501" sigma="0.500" speedFactor="1.200" tau="0.500" vClass="taxi"/>
        <vType accel="1.500" carFollowModel="IDM" color="white" decel="6.000" id="cav84" length="5.040" maxSpeed="30.000" minGap="1.501" sigma="0.500" speedFactor="1.200" tau="0.500" vClass="taxi"/>
        <vType accel="1.500" carFollowModel="IDM" color="white" decel="6.000" id="cav85" length="4.778" maxSpeed="30.000" minGap="1.501" sigma="0.500" speedFactor="1.200" tau="0.500" vClass="taxi"/>
        <vType accel="1.500" carFollowModel="IDM" color="white" decel="6.000" id="cav86" length="4.637" maxSpeed="30.000" minGap="1.501" sigma="0.500" speedFactor="1.200" tau="0.500" vClass="taxi"/>
        <vType accel="1.500" carFollowModel="IDM" color="white" decel="6.000" id="cav87" length="4.872" maxSpeed="30.000" minGap="1.501" sigma="0.500" speedFactor="1.200" tau="0.500" vClass="taxi"/>
        <vType accel="1.500" carFollowModel="IDM" color="white" decel="6.000" id="cav88" length="4.866" maxSpeed="30.000" minGap="1.501" sigma="0.500" speedFactor="1.200" tau="0.500" vClass="taxi"/>
        <vType accel="1.500" carFollowModel="IDM" color="white" decel="6.000" id="cav89" length="5.049" maxSpeed="30.000" minGap="1.501" sigma="0.500" speedFactor="1.200" tau="0.500" vClass="taxi"/>
        <vType accel="1.500" carFollowModel="IDM" color="white" decel="6.000" id="cav90" length="4.958" maxSpeed="30.000" minGap="1.501" sigma="0.500" speedFactor="1.200" tau="0.500" vClass="taxi"/>
        <vType accel="1.500" carFollowModel="IDM" color="white" decel="6.000" id="cav91" length="4.835" maxSpeed="30.000" minGap="1.501" sigma="0.500" speedFactor="1.200" tau="0.500" vClass="taxi"/>
        <vType accel="1.500" carFollowModel="IDM" color="white" decel="6.000" id="cav92" length="5.023" maxSpeed="30.000" minGap="1.501" sigma="0.500" speedFactor="1.200" tau="0.500" vClass="taxi"/>
        <vType accel="1.500" carFollowModel="IDM" color="white" decel="6.000" id="cav93" length="5.337" maxSpeed="30.000" minGap="1.501" sigma="0.500" speedFactor="1.200" tau="0.500" vClass="taxi"/>
        <vType accel="1.500" carFollowModel="IDM" color="white" decel="6.000" id="cav94" length="4.869" maxSpeed="30.000" minGap="1.501" sigma="0.500" speedFactor="1.200" tau="0.500" vClass="taxi"/>
        <vType accel="1.500" carFollowModel="IDM" color="white" decel="6.000" id="cav95" length="5.117" maxSpeed="30.000" minGap="1.501" sigma="0.500" speedFactor="1.200" tau="0.500" vClass="taxi"/>
        <vType accel="1.500" carFollowModel="IDM" color="white" decel="6.000" id="cav96" length="4.554" maxSpeed="30.000" minGap="1.501" sigma="0.500" speedFactor="1.200" tau="0.500" vClass="taxi"/>
        <vType accel="1.500" carFollowModel="IDM" color="white" decel="6.000" id="cav97" length="4.885" maxSpeed="30.000" minGap="1.501" sigma="0.500" speedFactor="1.200" tau="0.500" vClass="taxi"/>
        <vType accel="1.500" carFollowModel="IDM" color="white" decel="6.000" id="cav98" length="4.758" maxSpeed="30.000" minGap="1.501" sigma="0.500" speedFactor="1.200" tau="0.500" vClass="taxi"/>
        <vType accel="1.500" carFollowModel="IDM" color="white" decel="6.000" id="cav99" length="4.896" maxSpeed="30.000" minGap="1.501" sigma="0.500" speedFactor="1.200" tau="0.500" vClass="taxi"/>
    </vTypeDistribution>
</additional>
