<additional xmlns:xsi="http://www.w3.org/2001/XMLSchema-instance" xsi:noNamespaceSchemaLocation="http://sumo.dlr.de/xsd/additional_file.xsd">
    <vTypeDistribution id="hv">
        <vType accel="1.523" carFollowModel="IDM" color="green" decel="4.467" id="hv0" length="4.780" maxSpeed="30.000" minGap="1.397" sigma="0.668" speedFactor="1.164" tau="1.148" vClass="taxi"/>
        <vType accel="1.570" carFollowModel="IDM" color="green" decel="4.130" id="hv1" length="4.772" maxSpeed="30.000" minGap="1.382" sigma="0.904" speedFactor="1.244" tau="0.739" vClass="taxi"/>
        <vType accel="1.540" carFollowModel="IDM" color="green" decel="3.341" id="hv2" length="4.710" maxSpeed="30.000" minGap="1.770" sigma="0.894" speedFactor="0.979" tau="0.758" vClass="taxi"/>
        <vType accel="1.488" carFollowModel="IDM" color="green" decel="4.554" id="hv3" length="4.481" maxSpeed="30.000" minGap="1.915" sigma="0.857" speedFactor="0.991" tau="0.780" vClass="taxi"/>
        <vType accel="1.490" carFollowModel="IDM" color="green" decel="5.585" id="hv4" length="4.713" maxSpeed="30.000" minGap="1.175" sigma="0.392" speedFactor="1.217" tau="0.763" vClass="taxi"/>
        <vType accel="1.410" carFollowModel="IDM" color="green" decel="3.526" id="hv5" length="4.853" maxSpeed="30.000" minGap="1.677" sigma="0.881" speedFactor="1.296" tau="0.803" vClass="taxi"/>
        <vType accel="1.533" carFollowModel="IDM" color="green" decel="5.348" id="hv6" length="4.395" maxSpeed="30.000" minGap="1.198" sigma="0.688" speedFactor="1.311" tau="0.931" vClass="taxi"/>
        <vType accel="1.467" carFollowModel="IDM" color="green" decel="3.565" id="hv7" length="4.769" maxSpeed="30.000" minGap="1.672" sigma="0.776" speedFactor="0.935" tau="0.817" vClass="taxi"/>
        <vType accel="1.481" carFollowModel="IDM" color="green" decel="3.237" id="hv8" length="4.581" maxSpeed="30.000" minGap="1.767" sigma="0.933" speedFactor="1.185" tau="0.825" vClass="taxi"/>
        <vType accel="1.545" carFollowModel="IDM" color="green" decel="3.922" id="hv9" length="4.592" maxSpeed="30.000" minGap="1.731" sigma="0.716" speedFactor="1.489" tau="0.731" vClass="taxi"/>
        <vType accel="1.465" carFollowModel="IDM" color="green" decel="3.423" id="hv10" length="5.170" maxSpeed="30.000" minGap="1.355" sigma="0.800" speedFactor="1.069" tau="0.775" vClass="taxi"/>
        <vType accel="1.473" carFollowModel="IDM" color="green" decel="2.808" id="hv11" length="5.036" maxSpeed="30.000" minGap="1.220" sigma="0.846" speedFactor="1.437" tau="0.742" vClass="taxi"/>
        <vType accel="1.520" carFollowModel="IDM" color="green" decel="5.102" id="hv12" length="4.462" maxSpeed="30.000" minGap="1.385" sigma="0.991" speedFactor="1.350" tau="0.877" vClass="taxi"/>
        <vType accel="1.510" carFollowModel="IDM" color="green" decel="2.873" id="hv13" length="4.776" maxSpeed="30.000" minGap="2.018" sigma="0.619" speedFactor="1.187" tau="0.838" vClass="taxi"/>
        <vType accel="1.467" carFollowModel="IDM" color="green" decel="2.471" id="hv14" length="4.726" maxSpeed="30.000" minGap="2.171" sigma="0.692" speedFactor="1.307" tau="0.573" vClass="taxi"/>
        <vType accel="1.442" carFollowModel="IDM" color="green" decel="4.494" id="hv15" length="4.579" maxSpeed="30.000" minGap="1.668" sigma="0.926" speedFactor="1.114" tau="0.666" vClass="taxi"/>
        <vType accel="1.373" carFollowModel="IDM" color="green" decel="1.594" id="hv16" length="4.746" maxSpeed="30.000" minGap="1.429" sigma="0.757" speedFactor="1.392" tau="0.894" vClass="taxi"/>
        <vType accel="1.451" carFollowModel="IDM" color="green" decel="3.695" id="hv17" length="4.901" maxSpeed="30.000" minGap="1.228" sigma="0.945" speedFactor="1.195" tau="1.120" vClass="taxi"/>
        <vType accel="1.493" carFollowModel="IDM" color="green" decel="2.947" id="hv18" length="4.930" maxSpeed="30.000" minGap="1.464" sigma="0.923" speedFactor="1.306" tau="0.957" vClass="taxi"/>
        <vType accel="1.531" carFollowModel="IDM" color="green" decel="3.185" id="hv19" length="4.854" maxSpeed="30.000" minGap="1.345" sigma="0.813" speedFactor="1.083" tau="0.756" vClass="taxi"/>
        <vType accel="1.484" carFollowModel="IDM" color="green" decel="4.509" id="hv20" length="5.184" maxSpeed="30.000" minGap="1.434" sigma="0.712" speedFactor="1.106" tau="1.068" vClass="taxi"/>
        <vType accel="1.543" carFollowModel="IDM" color="green" decel="2.644" id="hv21" length="5.061" maxSpeed="30.000" minGap="1.686" sigma="0.912" speedFactor="1.372" tau="0.743" vClass="taxi"/>
        <vType accel="1.521" carFollowModel="IDM" color="green" decel="4.538" id="hv22" length="5.046" maxSpeed="30.000" minGap="1.567" sigma="0.732" speedFactor="1.481" tau="0.666" vClass="taxi"/>
        <vType accel="1.435" carFollowModel="IDM" color="green" decel="3.999" id="hv23" length="4.859" maxSpeed="30.000" minGap="1.294" sigma="0.832" speedFactor="1.160" tau="0.785" vClass="taxi"/>
        <vType accel="1.565" carFollowModel="IDM" color="green" decel="4.435" id="hv24" length="4.993" maxSpeed="30.000" minGap="1.434" sigma="0.653" speedFactor="1.116" tau="0.886" vClass="taxi"/>
        <vType accel="1.474" carFollowModel="IDM" color="green" decel="2.805" id="hv25" length="4.677" maxSpeed="30.000" minGap="1.818" sigma="0.853" speedFactor="1.040" tau="0.766" vClass="taxi"/>
        <vType accel="1.467" carFollowModel="IDM" color="green" decel="3.946" id="hv26" length="5.177" maxSpeed="30.000" minGap="1.699" sigma="0.721" speedFactor="1.690" tau="0.911" vClass="taxi"/>
        <vType accel="1.512" carFollowModel="IDM" color="green" decel="5.457" id="hv27" length="4.835" maxSpeed="30.000" minGap="1.187" sigma="0.867" speedFactor="1.281" tau="0.554" vClass="taxi"/>
        <vType accel="1.462" carFollowModel="IDM" color="green" decel="2.493" id="hv28" length="4.834" maxSpeed="30.000" minGap="1.431" sigma="0.924" speedFactor="1.363" tau="0.703" vClass="taxi"/>
        <vType accel="1.429" carFollowModel="IDM" color="green" decel="4.875" id="hv29" length="5.076" maxSpeed="30.000" minGap="1.770" sigma="0.863" speedFactor="1.150" tau="0.821" vClass="taxi"/>
        <vType accel="1.506" carFollowModel="IDM" color="green" decel="3.171" id="hv30" length="4.890" maxSpeed="30.000" minGap="1.541" sigma="0.957" speedFactor="1.502" tau="0.662" vClass="taxi"/>
        <vType accel="1.564" carFollowModel="IDM" color="green" decel="2.451" id="hv31" length="4.656" maxSpeed="30.000" minGap="1.717" sigma="0.822" speedFactor="1.033" tau="1.190" vClass="taxi"/>
        <vType accel="1.456" carFollowModel="IDM" color="green" decel="3.163" id="hv32" length="4.799" maxSpeed="30.000" minGap="1.312" sigma="0.666" speedFactor="1.151" tau="0.814" vClass="taxi"/>
        <vType accel="1.550" carFollowModel="IDM" color="green" decel="3.935" id="hv33" length="4.831" maxSpeed="30.000" minGap="1.594" sigma="0.977" speedFactor="1.141" tau="0.807" vClass="taxi"/>
        <vType accel="1.495" carFollowModel="IDM" color="green" decel="4.731" id="hv34" length="4.674" maxSpeed="30.000" minGap="1.864" sigma="0.894" speedFactor="1.173" tau="0.849" vClass="taxi"/>
        <vType accel="1.532" carFollowModel="IDM" color="green" decel="5.056" id="hv35" length="4.844" maxSpeed="30.000" minGap="1.694" sigma="0.642" speedFactor="1.023" tau="0.878" vClass="taxi"/>
        <vType accel="1.433" carFollowModel="IDM" color="green" decel="4.487" id="hv36" length="4.542" maxSpeed="30.000" minGap="1.679" sigma="0.956" speedFactor="1.118" tau="0.772" vClass="taxi"/>
        <vType accel="1.524" carFollowModel="IDM" color="green" decel="3.460" id="hv37" length="4.856" maxSpeed="30.000" minGap="1.691" sigma="0.868" speedFactor="1.424" tau="0.759" vClass="taxi"/>
        <vType accel="1.574" carFollowModel="IDM" color="green" decel="5.412" id="hv38" length="5.251" maxSpeed="30.000" minGap="1.313" sigma="0.916" speedFactor="1.148" tau="0.949" vClass="taxi"/>
        <vType accel="1.511" carFollowModel="IDM" color="green" decel="4.939" id="hv39" length="5.056" maxSpeed="30.000" minGap="1.589" sigma="0.682" speedFactor="1.318" tau="0.789" vClass="taxi"/>
        <vType accel="1.494" carFollowModel="IDM" color="green" decel="3.405" id="hv40" length="4.913" maxSpeed="30.000" minGap="1.590" sigma="0.465" speedFactor="1.161" tau="0.820" vClass="taxi"/>
        <vType accel="1.590" carFollowModel="IDM" color="green" decel="3.442" id="hv41" length="4.583" maxSpeed="30.000" minGap="1.824" sigma="0.606" speedFactor="1.355" tau="0.779" vClass="taxi"/>
        <vType accel="1.482" carFollowModel="IDM" color="green" decel="4.466" id="hv42" length="5.355" maxSpeed="30.000" minGap="1.774" sigma="0.948" speedFactor="1.510" tau="0.858" vClass="taxi"/>
        <vType accel="1.424" carFollowModel="IDM" color="green" decel="4.402" id="hv43" length="5.159" maxSpeed="30.000" minGap="1.878" sigma="0.894" speedFactor="1.108" tau="0.672" vClass="taxi"/>
        <vType accel="1.463" carFollowModel="IDM" color="green" decel="4.313" id="hv44" length="5.214" maxSpeed="30.000" minGap="2.025" sigma="0.717" speedFactor="1.212" tau="0.970" vClass="taxi"/>
        <vType accel="1.507" carFollowModel="IDM" color="green" decel="4.358" id="hv45" length="4.674" maxSpeed="30.000" minGap="1.882" sigma="0.797" speedFactor="1.476" tau="0.743" vClass="taxi"/>
        <vType accel="1.390" carFollowModel="IDM" color="green" decel="2.953" id="hv46" length="4.823" maxSpeed="30.000" minGap="1.605" sigma="0.878" speedFactor="1.219" tau="0.769" vClass="taxi"/>
        <vType accel="1.436" carFollowModel="IDM" color="green" decel="2.088" id="hv47" length="5.030" maxSpeed="30.000" minGap="1.878" sigma="0.649" speedFactor="1.231" tau="0.684" vClass="taxi"/>
        <vType accel="1.569" carFollowModel="IDM" color="green" decel="3.846" id="hv48" length="4.947" maxSpeed="30.000" minGap="1.726" sigma="0.930" speedFactor="1.208" tau="1.007" vClass="taxi"/>
        <vType accel="1.574" carFollowModel="IDM" color="green" decel="1.812" id="hv49" length="4.973" maxSpeed="30.000" minGap="1.672" sigma="0.660" speedFactor="1.186" tau="0.736" vClass="taxi"/>
        <vType accel="1.474" carFollowModel="IDM" color="green" decel="3.559" id="hv50" length="5.133" maxSpeed="30.000" minGap="1.524" sigma="0.650" speedFactor="1.286" tau="0.828" vClass="taxi"/>
        <vType accel="1.446" carFollowModel="IDM" color="green" decel="3.273" id="hv51" length="5.040" maxSpeed="30.000" minGap="1.303" sigma="0.825" speedFactor="1.256" tau="0.808" vClass="taxi"/>
        <vType accel="1.521" carFollowModel="IDM" color="green" decel="4.370" id="hv52" length="5.139" maxSpeed="30.000" minGap="1.410" sigma="0.761" speedFactor="1.288" tau="0.927" vClass="taxi"/>
        <vType accel="1.384" carFollowModel="IDM" color="green" decel="4.759" id="hv53" length="4.957" maxSpeed="30.000" minGap="1.821" sigma="0.823" speedFactor="1.071" tau="0.963" vClass="taxi"/>
        <vType accel="1.456" carFollowModel="IDM" color="green" decel="5.970" id="hv54" length="4.689" maxSpeed="30.000" minGap="1.835" sigma="0.844" speedFactor="1.306" tau="1.021" vClass="taxi"/>
        <vType accel="1.539" carFollowModel="IDM" color="green" decel="5.166" id="hv55" length="4.532" maxSpeed="30.000" minGap="1.824" sigma="0.697" speedFactor="1.088" tau="0.969" vClass="taxi"/>
        <vType accel="1.531" carFollowModel="IDM" color="green" decel="5.268" id="hv56" length="4.954" maxSpeed="30.000" minGap="1.435" sigma="0.674" speedFactor="0.979" tau="0.879" vClass="taxi"/>
        <vType accel="1.550" carFollowModel="IDM" color="green" decel="5.433" id="hv57" length="5.117" maxSpeed="30.000" minGap="1.667" sigma="0.578" speedFactor="1.345" tau="0.845" vClass="taxi"/>
        <vType accel="1.492" carFollowModel="IDM" color="green" decel="4.726" id="hv58" length="4.523" maxSpeed="30.000" minGap="1.604" sigma="0.947" speedFactor="0.973" tau="0.930" vClass="taxi"/>
        <vType accel="1.415" carFollowModel="IDM" color="green" decel="4.998" id="hv59" length="5.166" maxSpeed="30.000" minGap="1.164" sigma="0.873" speedFactor="1.347" tau="0.888" vClass="taxi"/>
        <vType accel="1.512" carFollowModel="IDM" color="green" decel="4.908" id="hv60" length="4.612" maxSpeed="30.000" minGap="1.603" sigma="0.690" speedFactor="1.231" tau="0.893" vClass="taxi"/>
        <vType accel="1.577" carFollowModel="IDM" color="green" decel="2.144" id="hv61" length="4.557" maxSpeed="30.000" minGap="1.867" sigma="0.782" speedFactor="1.403" tau="0.918" vClass="taxi"/>
        <vType accel="1.543" carFollowModel="IDM" color="green" decel="3.852" id="hv62" length="4.808" maxSpeed="30.000" minGap="1.523" sigma="0.670" speedFactor="0.971" tau="0.728" vClass="taxi"/>
        <vType accel="1.486" carFollowModel="IDM" color="green" decel="4.599" id="hv63" length="4.994" maxSpeed="30.000" minGap="1.123" sigma="0.663" speedFactor="1.077" tau="1.073" vClass="taxi"/>
        <vType accel="1.536" carFollowModel="IDM" color="green" decel="4.422" id="hv64" length="5.300" maxSpeed="30.000" minGap="1.387" sigma="0.540" speedFactor="1.229" tau="0.683" vClass="taxi"/>
        <vType accel="1.593" carFollowModel="IDM" color="green" decel="3.338" id="hv65" length="4.703" maxSpeed="30.000" minGap="1.396" sigma="0.880" speedFactor="1.130" tau="0.700" vClass="taxi"/>
        <vType accel="1.408" carFollowModel="IDM" color="green" decel="4.567" id="hv66" length="4.973" maxSpeed="30.000" minGap="1.478" sigma="0.846" speedFactor="1.206" tau="0.709" vClass="taxi"/>
        <vType accel="1.550" carFollowModel="IDM" color="green" decel="3.086" id="hv67" length="4.930" maxSpeed="30.000" minGap="1.424" sigma="0.534" speedFactor="1.417" tau="0.776" vClass="taxi"/>
        <vType accel="1.500" carFollowModel="IDM" color="green" decel="5.903" id="hv68" length="4.938" maxSpeed="30.000" minGap="1.199" sigma="0.770" speedFactor="1.217" tau="0.580" vClass="taxi"/>
        <vType accel="1.504" carFollowModel="IDM" color="green" decel="4.719" id="hv69" length="5.189" maxSpeed="30.000" minGap="1.292" sigma="0.962" speedFactor="1.561" tau="0.589" vClass="taxi"/>
        <vType accel="1.541" carFollowModel="IDM" color="green" decel="5.109" id="hv70" length="5.206" maxSpeed="30.000" minGap="1.387" sigma="0.872" speedFactor="1.174" tau="1.012" vClass="taxi"/>
        <vType accel="1.543" carFollowModel="IDM" color="green" decel="3.357" id="hv71" length="5.315" maxSpeed="30.000" minGap="1.797" sigma="0.628" speedFactor="1.195" tau="0.912" vClass="taxi"/>
        <vType accel="1.481" carFollowModel="IDM" color="green" decel="5.624" id="hv72" length="5.189" maxSpeed="30.000" minGap="1.841" sigma="0.561" speedFactor="1.311" tau="0.885" vClass="taxi"/>
        <vType accel="1.501" carFollowModel="IDM" color="green" decel="4.317" id="hv73" length="4.605" maxSpeed="30.000" minGap="1.897" sigma="0.665" speedFactor="0.929" tau="0.982" vClass="taxi"/>
        <vType accel="1.561" carFollowModel="IDM" color="green" decel="2.866" id="hv74" length="4.756" maxSpeed="30.000" minGap="1.376" sigma="0.894" speedFactor="1.022" tau="0.713" vClass="taxi"/>
        <vType accel="1.509" carFollowModel="IDM" color="green" decel="3.866" id="hv75" length="4.860" maxSpeed="30.000" minGap="1.517" sigma="0.903" speedFactor="1.429" tau="1.085" vClass="taxi"/>
        <vType accel="1.464" carFollowModel="IDM" color="green" decel="4.214" id="hv76" length="5.325" maxSpeed="30.000" minGap="1.383" sigma="0.671" speedFactor="1.223" tau="0.698" vClass="taxi"/>
        <vType accel="1.531" carFollowModel="IDM" color="green" decel="4.672" id="hv77" length="4.524" maxSpeed="30.000" minGap="1.204" sigma="0.821" speedFactor="1.288" tau="0.639" vClass="taxi"/>
        <vType accel="1.588" carFollowModel="IDM" color="green" decel="6.057" id="hv78" length="4.767" maxSpeed="30.000" minGap="1.269" sigma="0.785" speedFactor="1.368" tau="1.084" vClass="taxi"/>
        <vType accel="1.419" carFollowModel="IDM" color="green" decel="2.965" id="hv79" length="4.840" maxSpeed="30.000" minGap="1.231" sigma="0.600" speedFactor="1.382" tau="0.739" vClass="taxi"/>
        <vType accel="1.452" carFollowModel="IDM" color="green" decel="3.220" id="hv80" length="4.799" maxSpeed="30.000" minGap="1.713" sigma="0.791" speedFactor="1.212" tau="0.841" vClass="taxi"/>
        <vType accel="1.510" carFollowModel="IDM" color="green" decel="4.589" id="hv81" length="4.757" maxSpeed="30.000" minGap="1.417" sigma="0.538" speedFactor="1.069" tau="0.927" vClass="taxi"/>
        <vType accel="1.487" carFollowModel="IDM" color="green" decel="3.825" id="hv82" length="4.750" maxSpeed="30.000" minGap="1.602" sigma="0.648" speedFactor="1.318" tau="0.758" vClass="taxi"/>
        <vType accel="1.499" carFollowModel="IDM" color="green" decel="4.458" id="hv83" length="4.686" maxSpeed="30.000" minGap="1.354" sigma="0.870" speedFactor="1.178" tau="0.440" vClass="taxi"/>
        <vType accel="1.474" carFollowModel="IDM" color="green" decel="2.907" id="hv84" length="4.826" maxSpeed="30.000" minGap="1.518" sigma="0.867" speedFactor="1.141" tau="0.803" vClass="taxi"/>
        <vType accel="1.410" carFollowModel="IDM" color="green" decel="3.228" id="hv85" length="4.785" maxSpeed="30.000" minGap="1.527" sigma="0.563" speedFactor="1.363" tau="0.717" vClass="taxi"/>
        <vType accel="1.452" carFollowModel="IDM" color="green" decel="4.777" id="hv86" length="4.798" maxSpeed="30.000" minGap="1.387" sigma="0.717" speedFactor="1.352" tau="0.902" vClass="taxi"/>
        <vType accel="1.490" carFollowModel="IDM" color="green" decel="4.507" id="hv87" length="5.084" maxSpeed="30.000" minGap="1.418" sigma="0.776" speedFactor="1.065" tau="0.660" vClass="taxi"/>
        <vType accel="1.529" carFollowModel="IDM" color="green" decel="4.756" id="hv88" length="4.694" maxSpeed="30.000" minGap="1.561" sigma="0.890" speedFactor="1.229" tau="0.834" vClass="taxi"/>
        <vType accel="1.502" carFollowModel="IDM" color="green" decel="3.657" id="hv89" length="4.798" maxSpeed="30.000" minGap="1.215" sigma="0.913" speedFactor="1.139" tau="1.036" vClass="taxi"/>
        <vType accel="1.483" carFollowModel="IDM" color="green" decel="6.719" id="hv90" length="4.990" maxSpeed="30.000" minGap="1.182" sigma="0.804" speedFactor="1.214" tau="0.969" vClass="taxi"/>
        <vType accel="1.521" carFollowModel="IDM" color="green" decel="3.281" id="hv91" length="5.168" maxSpeed="30.000" minGap="1.631" sigma="0.942" speedFactor="1.026" tau="0.853" vClass="taxi"/>
        <vType accel="1.471" carFollowModel="IDM" color="green" decel="3.953" id="hv92" length="4.558" maxSpeed="30.000" minGap="1.428" sigma="0.718" speedFactor="1.269" tau="0.861" vClass="taxi"/>
        <vType accel="1.520" carFollowModel="IDM" color="green" decel="4.315" id="hv93" length="4.814" maxSpeed="30.000" minGap="1.385" sigma="0.692" speedFactor="1.149" tau="0.717" vClass="taxi"/>
        <vType accel="1.531" carFollowModel="IDM" color="green" decel="2.182" id="hv94" length="5.202" maxSpeed="30.000" minGap="1.184" sigma="0.675" speedFactor="1.135" tau="0.777" vClass="taxi"/>
        <vType accel="1.572" carFollowModel="IDM" color="green" decel="3.523" id="hv95" length="4.842" maxSpeed="30.000" minGap="1.033" sigma="0.745" speedFactor="1.089" tau="1.135" vClass="taxi"/>
        <vType accel="1.487" carFollowModel="IDM" color="green" decel="4.443" id="hv96" length="5.048" maxSpeed="30.000" minGap="1.547" sigma="0.750" speedFactor="1.107" tau="0.662" vClass="taxi"/>
        <vType accel="1.524" carFollowModel="IDM" color="green" decel="4.280" id="hv97" length="5.185" maxSpeed="30.000" minGap="1.506" sigma="0.634" speedFactor="1.339" tau="1.049" vClass="taxi"/>
        <vType accel="1.398" carFollowModel="IDM" color="green" decel="2.186" id="hv98" length="5.251" maxSpeed="30.000" minGap="1.399" sigma="0.868" speedFactor="1.408" tau="0.916" vClass="taxi"/>
        <vType accel="1.394" carFollowModel="IDM" color="green" decel="5.515" id="hv99" length="5.078" maxSpeed="30.000" minGap="1.749" sigma="0.878" speedFactor="1.052" tau="0.956" vClass="taxi"/>
    </vTypeDistribution>
</additional>
