<?xml version="1.0" encoding="UTF-8"?>

<!-- generated on 08/17/20 15:04:12 by Eclipse SUMO netedit Version 1.6.0
<configuration xmlns:xsi="http://www.w3.org/2001/XMLSchema-instance" xsi:noNamespaceSchemaLocation="http://sumo.dlr.de/xsd/netconvertConfiguration.xsd">

    <input>
        <sumo-net-file value="D:\Cooperative%20Merging%20Code\ramp\ramp.net.xml"/>
    </input>

    <output>
        <output-file value="D:\Cooperative%20Merging%20Code\ramp\ramp.net.xml"/>
    </output>

    <processing>
        <geometry.min-radius.fix.railways value="false"/>
        <geometry.max-grade.fix value="false"/>
        <offset.disable-normalization value="true"/>
        <lefthand value="false"/>
    </processing>

    <junctions>
        <no-turnarounds value="true"/>
        <junctions.corner-detail value="5"/>
        <junctions.limit-turn-speed value="5.5"/>
        <rectangular-lane-cut value="false"/>
    </junctions>

    <pedestrian>
        <walkingareas value="false"/>
    </pedestrian>

    <report>
        <aggregate-warnings value="5"/>
    </report>

</configuration>
-->

<net version="1.6" junctionCornerDetail="5" limitTurnSpeed="5.50" xmlns:xsi="http://www.w3.org/2001/XMLSchema-instance" xsi:noNamespaceSchemaLocation="http://sumo.dlr.de/xsd/net_file.xsd">

    <location netOffset="0.00,0.00" convBoundary="-200.00,-100.00,50.00,0.00" origBoundary="-10000000000.00,-10000000000.00,10000000000.00,10000000000.00" projParameter="!"/>

    <edge id=":gneJ1_0" function="internal">
        <lane id=":gneJ1_0_0" index="0" disallow="pedestrian motorcycle moped bicycle rail_urban rail ship" speed="14.87" length="10.33" shape="-6.03,-5.33 -3.44,-3.69 -1.59,-2.53 0.39,-1.83 3.36,-1.60"/>
    </edge>
    <edge id=":gneJ1_1" function="internal">
        <lane id=":gneJ1_1_0" index="0" disallow="pedestrian motorcycle moped bicycle rail_urban rail ship" speed="30.00" length="10.40" shape="-7.04,-1.60 3.36,-1.60"/>
    </edge>

    <edge id="left_in" from="gneJ0" to="gneJ1" priority="-1" spreadType="roadCenter" length="200.00">
        <lane id="left_in_0" index="0" disallow="pedestrian motorcycle moped bicycle rail_urban rail ship" speed="30.00" length="200.00" shape="-200.00,-1.60 -7.04,-1.60"/>
        <param key="length" value="200"/>
    </edge>
    <edge id="merged" from="gneJ1" to="gneJ2" priority="-1" length="50.00">
        <lane id="merged_0" index="0" speed="30.00" length="50.00" shape="3.36,-1.60 50.00,-1.60"/>
    </edge>
    <edge id="ramp_in" from="gneJ3" to="gneJ1" priority="-1" length="200.00">
        <lane id="ramp_in_0" index="0" disallow="pedestrian motorcycle moped bicycle rail_urban rail ship" speed="30.00" length="200.00" shape="-172.20,-101.39 -6.03,-5.33"/>
    </edge>

    <junction id="gneJ0" type="dead_end" x="-200.00" y="0.00" incLanes="" intLanes="" shape="-200.00,0.00 -200.00,-3.20"/>
    <junction id="gneJ1" type="district" x="0.00" y="0.00" incLanes="ramp_in_0 left_in_0" intLanes=":gneJ1_0_0 :gneJ1_1_0" shape="3.36,0.00 3.36,-3.20 1.66,-3.65 0.00,-4.18 -1.58,-4.88 -3.70,-5.73 -5.23,-6.72 -6.83,-3.95 -7.04,-3.20 -7.04,0.00" customShape="1" rightOfWay="edgePriority"/>
    <junction id="gneJ2" type="dead_end" x="50.00" y="0.00" incLanes="merged_0" intLanes="" shape="50.00,-3.20 50.00,0.00"/>
    <junction id="gneJ3" type="dead_end" x="-173.00" y="-100.00" incLanes="" intLanes="" shape="-173.00,-100.00 -171.40,-102.77"/>

    <connection from="left_in" to="merged" fromLane="0" toLane="0" via=":gneJ1_1_0" dir="s" state="M"/>
    <connection from="ramp_in" to="merged" fromLane="0" toLane="0" via=":gneJ1_0_0" dir="s" state="M"/>

    <connection from=":gneJ1_0" to="merged" fromLane="0" toLane="0" dir="s" state="M"/>
    <connection from=":gneJ1_1" to="merged" fromLane="0" toLane="0" dir="s" state="M"/>

</net>
